
**** 12/04/24 17:32:26 ******* PSpice Lite (March 2016) ******* ID# 10813 ****

 ** Profile: "SCHEMATIC1-test1"  [ c:\users\gutaa\desktop\p1_2024_434d_guta_andrei_petrisor_sers_n13_orcad\p1_2024_434d_guta_andrei_p


 ****     CIRCUIT DESCRIPTION


******************************************************************************




** Creating circuit file "test1.cir" 
** WARNING: THIS AUTOMATICALLY GENERATED FILE MAY BE OVERWRITTEN BY SUBSEQUENT SIMULATIONS

*Libraries: 
* Profile Libraries :
* Local Libraries :
* From [PSPICE NETLIST] section of C:\Users\gutaa\AppData\Roaming\SPB_Data\cdssetup\OrCAD_PSpice\17.2.0\PSpice.ini file:
.lib "nomd.lib" 

*Analysis directives: 
.DC LIN I_I1 0 0.9 0.01 
.OPTIONS ADVCONV
.PROBE64 V(alias(*)) I(alias(*)) W(alias(*)) D(alias(*)) NOISE(alias(*)) 
.INC "..\SCHEMATIC1.net" 



**** INCLUDING SCHEMATIC1.net ****
* source PROIECT_CEF2
R_R9         N82536 N82336 100
Q_Q2         N81946 N82156 N82330 BC846B 
X_D1         N82730 0 LED PARAMS: IS=1.7603e-027 RS=2  BV=5 IBV=10e-6         
R_R20         N98034 N98024 4.7k
R_R27         N826300 N824820 150
X_Q8         N81558 N81768 N81636 awbmjd31c PARAMS:                            
+                 
Q_Q3         N81936 N98325 N82336 BC846B 
R_R10         0 N82766 2.2k
Q_Q5         N82536 N82730 N82766 BC846B 
R_R25         N822560 N820880 10
Q_Q7         N81936 N97333 0 BC846B 
R_R4         N817840 N81558 2k
R_R7         N82536 N82330 100
X_R19         N825941 N98325 N98024 POT PARAMS: SET=0 VALUE=5k
Q_Q6         N81558 N82156 N82188 BC846B 
Q_Q4         N81936 N81946 N817300 BC856B 
R_R26         N824820 N822560 10
X_DZ1         0 N82156 awbbzx84c5v6 PARAMS:               
R_R8         N817300 N81558 510
R_R24         N820880 N818700 100
R_R22         0 N89953 2.2k
R_R28         0 N826300 150
R_R11         N101727 N82188 910
R_R6         N817060 N81558 510
X_D2         N81654 N89953 LED PARAMS: IS=1.7603e-027 RS=2  BV=5 IBV=10e-6     
+     
R_R23         N818700 N81654 100
Q_Q10         N81936 N81636 N81654 BC846B 
Q_Q1         N81946 N81946 N817060 BC856B 
Q_Q9         N81558 N81936 N81768 BC846B 
R_R15         N81654 N89468 1
R_R16         N81654 N89468 4.7
R_R1         N925970 N81558 510
R_R12         N97333 N101727 10
R_R21         0 N98034 330
R_R17         N115983 N81654 910
R_R18         N825941 N115983 680
R_R2         N987480 N925970 680
R_R3         N82730 N987480 820
R_R5         N82156 N817840 680
R_R14         N89468 N81636 0.47
R_R13         0 N97333 100
V_V1         N81558 0 26
I_I1         N81654 0 DC 0Adc  

**** RESUMING test1.cir ****
.END

**** 12/04/24 17:32:26 ******* PSpice Lite (March 2016) ******* ID# 10813 ****

 ** Profile: "SCHEMATIC1-test1"  [ c:\users\gutaa\desktop\p1_2024_434d_guta_andrei_petrisor_sers_n13_orcad\p1_2024_434d_guta_andrei_p


 ****     Diode MODEL PARAMETERS


******************************************************************************




               X_D1.model201   X_D2.model201   
          IS    1.760300E-27    1.760300E-27 
           N    2               2            
          BV    5               5            
         IBV   10.000000E-06   10.000000E-06 
          RS    2               2            


**** 12/04/24 17:32:26 ******* PSpice Lite (March 2016) ******* ID# 10813 ****

 ** Profile: "SCHEMATIC1-test1"  [ c:\users\gutaa\desktop\p1_2024_434d_guta_andrei_petrisor_sers_n13_orcad\p1_2024_434d_guta_andrei_p


 ****     BJT MODEL PARAMETERS


******************************************************************************




               BC846B          BC856B          X_Q8.model4     
               NPN             PNP             NPN             
       LEVEL    1               1               1            
          IS    7.049000E-15  336.700000E-15  113.200000E-15 
          EG                                    1.11         
          BF  279.1           277.7           211.9          
          NF    1               1               1            
         VAF   62.37           62.37          100            
         IKF     .2201           .1686           .5781       
         ISE   59.160000E-15    1.966000E-12    1.128000E-12 
          NE    1.81            2.123           1.49         
          BR    3.816           7.16             .2471       
          NR    1               1               1            
         VAR                                   50            
         IKR    1.859           9.677           1.000000E+09 
         ISC   16.170000E-15  196.000000E-12                 
          NC    2.394           1.815                        
          NK     .6305           .545                        
         ISS    0               0               0            
          RB                                    1.148        
         RBM                                    1.148        
         IRB                                     .3          
          RE    0               0                .01778      
          RC    1.508           2.891            .1022       
         CJE    9.485000E-12    8.397000E-12  320.700000E-12 
         VJE     .5              .5              .6789       
         MJE     .3333           .3865           .5601       
         CJC    7.287000E-12   11.510000E-12  312.600000E-12 
         VJC     .5              .5              .6379       
         MJC     .3333           .3626           .4495       
        XCJC    1               1               1            
         CJS    0               0               1.000000E-12 
         VJS     .75             .75             .75         
          TF  664.000000E-12  605.900000E-12   44.350000E-09 
         XTF  147              23.02             .02393      
         VTF   10              10             367.200000E+03 
         ITF    4.664           2.133            .01946      
          TR   10.000000E-09   10.000000E-09  272.700000E-09 
         XTB    1.5             1.5             1.45         
          KF    0               0               0            
          AF    1               1               1            
          CN    2.42            2.2             2.42         
           D     .87             .52             .87         



          JOB CONCLUDED

**** 12/04/24 17:32:26 ******* PSpice Lite (March 2016) ******* ID# 10813 ****

 ** Profile: "SCHEMATIC1-test1"  [ c:\users\gutaa\desktop\p1_2024_434d_guta_andrei_petrisor_sers_n13_orcad\p1_2024_434d_guta_andrei_p


 ****     JOB STATISTICS SUMMARY


******************************************************************************



  Total job time (using Solver 1)   =         .05
